 xtb: 6.7.1 (edcfbbe)
          12072405393D

 45 37  0     0  0            999 V2000
    3.0575   -0.3685   -0.5747 C   0  0  0  0  0  0  0  0  0  0  0  0
    1.8014    0.4109   -0.1708 C   0  0  0  0  0  0  0  0  0  0  0  0
    0.5290   -0.3092   -0.6724 C   0  0  0  0  0  0  0  0  0  0  0  0
   -0.7176    0.6040   -0.4992 C   0  0  0  0  0  0  0  0  0  0  0  0
   -1.9887   -0.2417   -0.2801 C   0  0  0  0  0  0  0  0  0  0  0  0
   -3.2340    0.5518   -0.5396 C   0  0  0  0  0  0  0  0  0  0  0  0
    4.2200    0.2264   -0.0641 O   0  0  0  0  0  0  0  0  0  0  0  0
    1.9125    1.7135   -0.7193 O   0  0  0  0  0  0  0  0  0  0  0  0
    0.4227   -1.5658   -0.0424 O   0  0  0  0  0  0  0  0  0  0  0  0
   -1.9859   -0.7142    1.0555 O   0  0  0  0  0  0  0  0  0  0  0  0
   -4.1235    0.6249    0.2673 O   0  0  0  0  0  0  0  0  0  0  0  0
    3.1024   -0.4313   -1.6702 H   0  0  0  0  0  0  0  0  0  0  0  0
    3.0065   -1.3759   -0.1600 H   0  0  0  0  0  0  0  0  0  0  0  0
    1.7702    0.4732    0.9255 H   0  0  0  0  0  0  0  0  0  0  0  0
    0.6439   -0.5080   -1.7444 H   0  0  0  0  0  0  0  0  0  0  0  0
   -0.5676    1.5140    0.5672 O   0  0  0  0  0  0  0  0  0  0  0  0
   -1.9929   -1.0864   -1.0013 H   0  0  0  0  0  0  0  0  0  0  0  0
   -3.2757    1.0404   -1.5240 H   0  0  0  0  0  0  0  0  0  0  0  0
    4.1938    1.1608   -0.3044 H   0  0  0  0  0  0  0  0  0  0  0  0
    1.1858    2.2383   -0.3563 H   0  0  0  0  0  0  0  0  0  0  0  0
   -0.2200   -1.5158    0.6788 H   0  0  0  0  0  0  0  0  0  0  0  0
   -2.8860   -0.5685    1.3937 H   0  0  0  0  0  0  0  0  0  0  0  0
   -0.8378    1.2057   -1.4048 H   0  0  0  0  0  0  0  0  0  0  0  0
   -0.8097    1.0418    1.3786 H   0  0  0  0  0  0  0  0  0  0  0  0
   -1.7647   -0.5593   -4.7759 O   0  0  0  0  0  0  0  0  0  0  0  0
   -2.5519   -0.3590   -5.2833 H   0  0  0  0  0  0  0  0  0  0  0  0
   -1.4707    0.2810   -4.3507 H   0  0  0  0  0  0  0  0  0  0  0  0
   -1.9149   -2.2397   -2.5363 O   0  0  0  0  0  0  0  0  0  0  0  0
   -1.9247   -1.7014   -3.3411 H   0  0  0  0  0  0  0  0  0  0  0  0
   -1.0466   -2.6765   -2.5116 H   0  0  0  0  0  0  0  0  0  0  0  0
   -0.9534    1.7148   -3.6459 O   0  0  0  0  0  0  0  0  0  0  0  0
    0.0394    1.6382   -3.6188 H   0  0  0  0  0  0  0  0  0  0  0  0
   -1.1347    2.5227   -4.1289 H   0  0  0  0  0  0  0  0  0  0  0  0
    0.3132   -2.2779   -5.2883 O   0  0  0  0  0  0  0  0  0  0  0  0
    0.1215   -3.0183   -4.7033 H   0  0  0  0  0  0  0  0  0  0  0  0
   -0.4484   -1.6752   -5.2239 H   0  0  0  0  0  0  0  0  0  0  0  0
    0.7295   -3.1257   -2.3866 O   0  0  0  0  0  0  0  0  0  0  0  0
    1.3982   -2.5306   -2.7548 H   0  0  0  0  0  0  0  0  0  0  0  0
    0.7017   -2.9244   -1.4421 H   0  0  0  0  0  0  0  0  0  0  0  0
    2.2472   -1.1731   -3.8830 O   0  0  0  0  0  0  0  0  0  0  0  0
    1.5561   -1.5180   -4.5077 H   0  0  0  0  0  0  0  0  0  0  0  0
    3.0926   -1.3652   -4.2920 H   0  0  0  0  0  0  0  0  0  0  0  0
    1.6537    1.4872   -3.4991 O   0  0  0  0  0  0  0  0  0  0  0  0
    1.9044    0.5622   -3.6813 H   0  0  0  0  0  0  0  0  0  0  0  0
    1.8741    1.6463   -2.5661 H   0  0  0  0  0  0  0  0  0  0  0  0
  1  2  1  0  0  0  0
  2  3  1  0  0  0  0
  3  4  1  0  0  0  0
  4  5  1  0  0  0  0
  5  6  1  0  0  0  0
  1  7  1  0  0  0  0
  2  8  1  0  0  0  0
  3  9  1  0  0  0  0
  5 10  1  0  0  0  0
  6 11  2  0  0  0  0
  1 12  1  0  0  0  0
  1 13  1  0  0  0  0
  2 14  1  0  0  0  0
  3 15  1  0  0  0  0
  4 16  1  0  0  0  0
  5 17  1  0  0  0  0
  6 18  1  0  0  0  0
  7 19  1  0  0  0  0
  8 20  1  0  0  0  0
  9 21  1  0  0  0  0
 10 22  1  0  0  0  0
  4 23  1  0  0  0  0
 16 24  1  0  0  0  0
 25 26  1  0  0  0  0
 25 27  1  0  0  0  0
 28 29  1  0  0  0  0
 28 30  1  0  0  0  0
 31 32  1  0  0  0  0
 31 33  1  0  0  0  0
 34 35  1  0  0  0  0
 34 36  1  0  0  0  0
 37 38  1  0  0  0  0
 37 39  1  0  0  0  0
 40 41  1  0  0  0  0
 40 42  1  0  0  0  0
 43 44  1  0  0  0  0
 43 45  1  0  0  0  0
M  END
